LAMMPS (7 Feb 2024 - Development - )
#system setting #

units		real
boundary	p p p
atom_style	angle
bond_style      harmonic
angle_style   harmonic
neigh_modify delay 0 every 1
pair_style lj/cut 20

read_data ./model/test_ok.data
Reading data file ...
  orthogonal box = (0 0 0) to (302.5 302.5 302.5)
  reading atoms ...
  10000 atoms
  scanning bonds ...
  scanning angles ...
  reading bonds ...
  9990 bonds
  reading angles ...
  9980 angles
Finding 1-2 1-3 1-4 neighbors ...
     2 = max # of 1-2 neighbors
     2 = max # of 1-3 neighbors
     4 = max # of 1-4 neighbors
     6 = max # of special neighbors
#minimize
minimize 0.0 1.0e-8 1000 100000
Generated 0 of 0 mixed pair_coeff terms from geometric mixing rule
Step          Temp          E_pair         E_mol          TotEng         Press
0   0              1724835.3      321657.69      2046493        16337.271
Loop time of 7.62623 on 4 procs for 1000 steps with 10000 atoms

Minimization stats:
  Stopping criterion = max iterations
  Energy initial, next-to-last, final =
  Force two-norm initial, final = 207769.35 14.882631
  Force max component initial, final = 3128.9336 1.632769
  Final line search alpha, max atom move = 0.03463439 0.056549958
  Iterations, force evaluations = 1000 1387

# time integration settings #
timestep		20	# 20fs

# thermosystem set #
velocity 		all create 500.0 4928459 dist gaussian

# reset timestep #
reset_timestep 0

# run cooling #
thermo 10000
fix				1 all npt temp 500.0 500.0 200 iso 1.0 1.0 1000
run 50000
Generated 0 of 0 mixed pair_coeff terms from geometric mixing rule
Step          Temp          E_pair         E_mol          TotEng         Press          Volume
0   500           -12614.319      3523.301       5811.542       21.850136      27680641
Loop time of 1187.2 on 4 procs for 50000 steps with 10000 atoms

write_data ./model/test_m.dataa
System init for write_data ...
Generated 0 of 0 mixed pair_coeff terms from geometric mixing rule
